  Page 1                                    Wed Jul 20 19:48:03 2022

  ******************************************************************
  *                           E P A N E T                          *
  *                   Hydraulic and Water Quality                  *
  *                   Analysis for Pipe Networks                   *
  *                           Version 2.0                          *
  ******************************************************************
  
  Analysis begun Wed Jul 20 19:48:03 2022

  Analysis ended Wed Jul 20 19:48:04 2022
